/home/unibas/boittier/RDKit_G2/N.pdb/OPT_wB97XD_6-31+G/OPT_N.pdb.out
 OpenBabel06252116473D
Gaussian opt/cluster/programs/g09_d.01/g09//g09 #p wB97XD/6-31+G Opt Freq=NoRama
 13 12  0  0  0  0  0  0  0  0999 V2000
    1.7312    1.2600    0.0338 C   0  0  0  0  0  0  0  0  0  0  0  0
    1.5348   -0.2269    0.0892 C   0  0  0  0  0  0  0  0  0  0  0  0
    1.1286    1.7001   -0.7681 H   0  0  0  0  0  0  0  0  0  0  0  0
    2.7844    1.4734   -0.1508 H   0  0  0  0  0  0  0  0  0  0  0  0
    1.4137    1.7313    0.9696 H   0  0  0  0  0  0  0  0  0  0  0  0
    0.1763   -0.8028    0.4923 C   0  0  0  0  0  0  0  0  0  0  0  0
    2.4539   -1.0220   -0.1271 O   0  0  0  0  0  0  0  0  0  0  0  0
   -1.0371   -0.0680    0.0039 C   0  0  0  0  0  0  0  0  0  0  0  0
    0.1229   -0.8376    1.5869 H   0  0  0  0  0  0  0  0  0  0  0  0
    0.1265   -1.8298    0.1239 H   0  0  0  0  0  0  0  0  0  0  0  0
   -1.1958    1.1840    0.5985 F   0  0  0  0  0  0  0  0  0  0  0  0
   -2.1989   -0.7802    0.2774 F   0  0  0  0  0  0  0  0  0  0  0  0
   -1.0096    0.1478   -1.3715 F   0  0  0  0  0  0  0  0  0  0  0  0
  1  2  1  0  0  0  0
  1  5  1  0  0  0  0
  2  6  1  0  0  0  0
  3  1  1  0  0  0  0
  4  1  1  0  0  0  0
  6  9  1  0  0  0  0
  7  2  2  0  0  0  0
  8 12  1  0  0  0  0
  8  6  1  0  0  0  0
  8 11  1  0  0  0  0
 10  6  1  0  0  0  0
 13  8  1  0  0  0  0
M  END
$$$$
