/home/unibas/boittier/RDKit_G2/L.pdb/OPT_wB97XD_6-31+G/OPT_L.pdb.out
 OpenBabel06162117273D
Gaussian opt/cluster/programs/g09_d.01/g09//g09 #p wB97XD/6-31+G Opt Freq=NoRama
  8  7  0  0  0  0  0  0  0  0999 V2000
    1.7690    0.1370    0.0000 C   0  0  0  0  0  0  0  0  0  0  0  0
    0.5622   -0.4454   -0.0000 C   0  0  0  0  0  0  0  0  0  0  0  0
   -0.6684    0.3583   -0.0001 C   0  0  0  0  0  0  0  0  0  0  0  0
   -1.8057   -0.1261    0.0000 O   0  0  0  0  0  0  0  0  0  0  0  0
   -0.5313    1.4536    0.0001 H   0  0  0  0  0  0  0  0  0  0  0  0
    2.6870   -0.4400    0.0000 H   0  0  0  0  0  0  0  0  0  0  0  0
    1.8747    1.2200    0.0000 H   0  0  0  0  0  0  0  0  0  0  0  0
    0.4390   -1.5246   -0.0000 H   0  0  0  0  0  0  0  0  0  0  0  0
  1  7  1  0  0  0  0
  1  6  1  0  0  0  0
  2  8  1  0  0  0  0
  2  1  2  0  0  0  0
  3  2  1  0  0  0  0
  3  4  2  0  0  0  0
  3  5  1  0  0  0  0
M  END
$$$$
