/home/unibas/boittier/RDKit_G2/O.pdb/OPT_wB97XD_6-31+G/OPT_O.pdb.out
     RDKit          3D

 11 10  0  0  0  0  0  0  0  0999 V2000
    1.8039   -0.5364    0.0014 C   0  0  0  0  0  0  0  0  0  0  0  0
    0.4837    0.1692   -0.0041 C   0  0  0  0  0  0  0  0  0  0  0  0
    1.9255   -1.0869    0.9391 H   0  0  0  0  0  0  0  0  0  0  0  0
    2.6054    0.1949   -0.0986 H   0  0  0  0  0  0  0  0  0  0  0  0
    1.8501   -1.2604   -0.8159 H   0  0  0  0  0  0  0  0  0  0  0  0
   -0.5593   -0.7139   -0.0053 O   0  0  0  0  0  0  0  0  0  0  0  0
    0.3151    1.3893   -0.0003 O   0  0  0  0  0  0  0  0  0  0  0  0
   -1.9103   -0.1559    0.0034 C   0  0  0  0  0  0  0  0  0  0  0  0
   -2.0629    0.4381    0.9063 H   0  0  0  0  0  0  0  0  0  0  0  0
   -2.5674   -1.0218   -0.0125 H   0  0  0  0  0  0  0  0  0  0  0  0
   -2.0617    0.4708   -0.8773 H   0  0  0  0  0  0  0  0  0  0  0  0
  1  3  1  0
  2  7  2  0
  2  1  1  0
  4  1  1  0
  5  1  1  0
  6  2  1  0
  6  8  1  0
  8  9  1  0
 10  8  1  0
 11  8  1  0
M  END
